
  MOE2018           3D
CORINA 4.1.0 0026  01.08.2017
239262  0  0  1  0  0  0  0  0999 V2000
   61.7700    2.7120   13.8000 C   0  0  0  0  0  0  0  0  0  0  0  0
   60.7090    3.0040   12.5490 N   0  0  0  0  0  0  0  0  0  0  0  0
   59.5500    2.0510   12.9160 C   0  0  0  0  0  0  0  0  0  0  0  0
   61.0560    4.2150   11.2760 C   0  0  0  0  0  0  0  0  0  0  0  0
   61.6860    5.3010   11.4640 O   0  0  0  0  0  0  0  0  0  0  0  0
   61.1100    3.8310    9.4130 C   0  0  0  0  0  0  0  0  0  0  0  0
   61.5510    2.7580    7.7340 N   0  0  0  0  0  0  0  0  0  0  0  0
   63.1220    2.7220    7.3670 C   0  0  0  0  0  0  0  0  0  0  0  0
   60.6840    1.8490    7.1130 C   0  0  0  0  0  0  0  0  0  0  0  0
   60.2880    0.0270    6.5890 C   0  0  0  0  0  0  0  0  0  0  0  0
   58.7660   -0.0960    5.2880 C   0  0  0  0  0  0  0  0  0  0  0  0
   57.4500    1.0400    5.8850 C   0  0  0  0  0  0  0  0  0  0  0  0
   58.1300    2.6920    7.4740 S   0  0  0  0  0  0  0  0  0  0  0  0
   56.0220    0.5900    5.8110 C   0  0  0  0  0  0  0  0  0  0  0  0
   55.8750   -0.0820    4.4380 C   0  0  0  0  0  0  0  0  0  0  0  0
   56.8230   -1.2870    4.0900 C   0  0  1  0  0  0  0  0  0  0  0  0
   56.3370   -2.1790    4.5140 H   0  0  0  0  0  0  0  0  0  0  0  0
   56.9320   -1.4590    2.5650 C   0  0  1  0  0  0  0  0  0  0  0  0
   57.7060   -2.6330    1.9720 C   0  0  0  0  0  0  0  0  0  0  0  0
   57.3340   -2.2670    0.5360 C   0  0  1  0  0  0  0  0  0  0  0  0
   57.7640   -2.9270   -0.2220 H   0  0  0  0  0  0  0  0  0  0  0  0
   55.8020   -2.3190    0.6070 C   0  0  0  0  0  0  0  0  0  0  0  0
   55.5340   -1.7160    1.9660 N   0  3  0  0  0  0  0  0  0  0  0  0
   57.8690   -0.8850    0.4680 N   0  0  1  0  0  0  0  0  0  0  0  0
   57.4340   -0.1140   -0.6970 C   0  0  0  0  0  0  0  0  0  0  0  0
   58.3110    1.0850   -0.9930 C   0  0  0  0  0  0  0  0  0  0  0  0
   58.1150    2.3100   -0.3410 C   0  0  0  0  0  0  0  0  0  0  0  0
   58.8910    3.4280   -0.6680 C   0  0  0  0  0  0  0  0  0  0  0  0
   59.8590    3.3540   -1.6770 C   0  0  0  0  0  0  0  0  0  0  0  0
   60.6010    4.5400   -2.1010 C   0  0  0  0  0  0  0  0  0  0  0  0
   61.9520    4.5330   -2.2210 N   0  0  0  0  0  0  0  0  0  0  0  0
   62.5510    3.7390   -2.0330 H   0  0  0  0  0  0  0  0  0  0  0  0
   62.3860    5.7730   -2.6310 C   0  0  0  0  0  0  0  0  0  0  0  0
   63.5430    6.1100   -2.8350 O   0  0  0  0  0  0  0  0  0  0  0  0
   61.2980    6.6170   -2.7850 O   0  0  0  0  0  0  0  0  0  0  0  0
   60.2110    5.7740   -2.4470 C   0  0  0  0  0  0  0  0  0  0  0  0
   58.8730    6.3810   -2.5180 C   0  0  0  0  0  0  0  0  0  0  0  0
   57.7410    5.6390   -2.8800 C   0  0  0  0  0  0  0  0  0  0  0  0
   56.4650    6.2100   -2.8390 C   0  0  0  0  0  0  0  0  0  0  0  0
   56.2960    7.5490   -2.4710 C   0  0  0  0  0  0  0  0  0  0  0  0
   54.9650    8.1020   -2.3050 C   0  0  0  0  0  0  0  0  0  0  0  0
   54.6870    9.4310   -2.5110 N   0  0  0  0  0  0  0  0  0  0  0  0
   53.4290    9.5660   -2.1260 C   0  0  0  0  0  0  0  0  0  0  0  0
   52.6540   10.8090   -2.0430 C   0  0  0  0  0  0  0  0  0  0  0  0
   51.4330   10.6730   -2.6310 N   0  0  0  0  0  0  0  0  0  0  0  0
   50.5980   11.7290   -2.6150 C   0  0  0  0  0  0  0  0  0  0  0  0
   50.9120   12.9320   -2.0290 C   0  0  0  0  0  0  0  0  0  0  0  0
   52.1610   13.0550   -1.4290 C   0  0  0  0  0  0  0  0  0  0  0  0
   53.0980   11.9980   -1.4280 C   0  0  0  0  0  0  0  0  0  0  0  0
   54.4360   12.2170   -0.8150 C   0  0  0  0  0  0  0  0  0  0  0  0
   55.1410   11.2100   -0.1280 C   0  0  0  0  0  0  0  0  0  0  0  0
   56.4080   11.3020    0.3560 N   0  0  0  0  0  0  0  0  0  0  0  0
   56.9630   12.5100    0.2210 C   0  0  0  0  0  0  0  0  0  0  0  0
   58.1960   12.8340    0.6590 N   0  5  0  0  0  0  0  0  0  0  0  0
   58.3920   14.1550    0.4530 C   0  0  0  0  0  0  0  0  0  0  0  0
   59.4050   14.7830    0.7390 O   0  0  0  0  0  0  0  0  0  0  0  0
   57.2200   14.6720   -0.1300 N   0  0  0  0  0  0  0  0  0  0  0  0
   56.9840   16.0000   -0.3950 C   0  0  0  0  0  0  0  0  0  0  0  0
   57.7300   17.1270   -0.1330 C   0  0  0  0  0  0  0  0  0  0  0  0
   56.9360   18.2420   -0.5050 C   0  0  0  0  0  0  0  0  0  0  0  0
   57.2700   19.5510   -0.3000 N   0  0  0  0  0  0  0  0  0  0  0  0
   56.3650   20.4210    0.4660 C   0  0  0  0  0  0  0  0  0  0  0  0
   56.1410   21.7540   -0.2360 C   0  0  0  0  0  0  0  0  0  0  0  0
   57.4680   22.4310   -0.5470 C   0  0  0  0  0  0  0  0  0  0  0  0
   58.3460   21.5020   -1.3770 C   0  0  0  0  0  0  0  0  0  0  0  0
   58.5680   20.1440   -0.6880 C   0  0  2  0  0  0  0  0  0  0  0  0
   59.1520   20.3020    0.2280 H   0  0  0  0  0  0  0  0  0  0  0  0
   59.3670   19.2740   -1.6600 C   0  0  0  0  0  0  0  0  0  0  0  0
   60.5470   18.7930   -1.1390 N   0  0  0  0  0  0  0  0  0  0  0  0
   59.0050   19.0270   -2.8080 O   0  0  0  0  0  0  0  0  0  0  0  0
   55.7490   17.7470   -1.0480 C   0  0  0  0  0  0  0  0  0  0  0  0
   54.6660   18.4570   -1.6390 C   0  0  0  0  0  0  0  0  0  0  0  0
   53.4750   17.8840   -1.8720 C   0  0  0  0  0  0  0  0  0  0  0  0
   52.3550   18.6070   -2.4980 C   0  0  0  0  0  0  0  0  0  0  0  0
   51.1470   17.9660   -2.7280 C   0  0  0  0  0  0  0  0  0  0  0  0
   50.1250   18.6860   -3.3370 C   0  0  0  0  0  0  0  0  0  0  0  0
   50.3380   20.0070   -3.7240 C   0  0  0  0  0  0  0  0  0  0  0  0
   51.5820   20.5880   -3.4880 C   0  0  0  0  0  0  0  0  0  0  0  0
   51.9230   22.0200   -3.8830 C   0  0  1  0  0  0  0  0  0  0  0  0
   53.3840   22.1740   -4.3220 C   0  0  0  0  0  0  0  0  0  0  0  0
   53.9190   21.2680   -5.0970 N   0  0  0  0  0  0  0  0  0  0  0  0
   55.2280   21.4000   -5.4040 N   0  0  0  0  0  0  0  0  0  0  0  0
   55.6410   20.6980   -6.0120 H   0  0  0  0  0  0  0  0  0  0  0  0
   56.0460   22.3910   -4.9520 C   0  0  0  0  0  0  0  0  0  0  0  0
   55.6370   23.3980   -4.1850 C   0  0  0  0  0  0  0  0  0  0  0  0
   54.1990   23.3920   -3.8640 C   0  0  0  0  0  0  0  0  0  0  0  0
   53.6910   24.3350   -3.2800 O   0  0  0  0  0  0  0  0  0  0  0  0
   51.1550   22.4790   -5.0450 N   0  5  0  0  0  0  0  0  0  0  0  0
   50.4020   23.5500   -4.8230 C   0  0  0  0  0  0  0  0  0  0  0  0
   49.6480   24.0390   -5.6530 O   0  0  0  0  0  0  0  0  0  0  0  0
   50.5800   23.9440   -3.5140 N   0  0  0  0  0  0  0  0  0  0  0  0
   50.0110   25.1160   -2.9140 C   0  0  0  0  0  0  0  0  0  0  0  0
   49.3120   26.0780   -3.6550 C   0  0  0  0  0  0  0  0  0  0  0  0
   48.7540   27.2080   -3.0490 C   0  0  0  0  0  0  0  0  0  0  0  0
   48.8960   27.3740   -1.6800 C   0  0  0  0  0  0  0  0  0  0  0  0
   48.3480   28.6170   -0.9890 C   0  0  1  0  0  0  0  0  0  0  0  0
   47.6090   29.0810   -1.6530 H   0  0  0  0  0  0  0  0  0  0  0  0
   47.6890   28.2250    0.2470 N   0  0  0  0  0  0  0  0  0  0  0  0
   46.6560   28.8620    0.8710 C   0  0  0  0  0  0  0  0  0  0  0  0
   46.0950   28.5080    1.9880 N   0  0  0  0  0  0  0  0  0  0  0  0
   45.1750   29.6100    2.2830 C   0  0  0  0  0  0  0  0  0  0  0  0
   45.0250   30.3460    0.9760 C   0  0  0  0  0  0  0  0  0  0  0  0
   46.1830   29.9780    0.2440 O   0  0  0  0  0  0  0  0  0  0  0  0
   49.4880   29.5890   -0.7870 C   0  0  0  0  0  0  0  0  0  0  0  0
   50.4750   29.4480    0.3480 C   0  0  0  0  0  0  0  0  0  0  0  0
   49.5300   30.6150    0.3210 C   0  0  0  0  0  0  0  0  0  0  0  0
   49.5680   26.4740   -0.9250 N   0  0  0  0  0  0  0  0  0  0  0  0
   50.1130   25.3950   -1.5520 C   0  0  0  0  0  0  0  0  0  0  0  0
   51.3880   23.0170   -2.8570 C   0  0  0  0  0  0  0  0  0  0  0  0
   51.6670   22.9450   -1.6650 O   0  0  0  0  0  0  0  0  0  0  0  0
   52.5640   19.9000   -2.8470 N   0  0  0  0  0  0  0  0  0  0  0  0
   55.7970   16.3710   -0.9490 O   0  0  0  0  0  0  0  0  0  0  0  0
   56.3320   13.6090   -0.3300 C   0  0  0  0  0  0  0  0  0  0  0  0
   55.0780   13.4740   -0.8870 C   0  0  0  0  0  0  0  0  0  0  0  0
   52.9810    8.3290   -1.7150 N   0  0  0  0  0  0  0  0  0  0  0  0
   51.6960    7.9500   -1.1620 C   0  0  0  0  0  0  0  0  0  0  0  0
   51.5720    8.3410    0.3090 C   0  0  0  0  0  0  0  0  0  0  0  0
   50.1930    8.0350    0.8390 C   0  0  0  0  0  0  0  0  0  0  0  0
   49.2100    9.0330    0.7780 C   0  0  0  0  0  0  0  0  0  0  0  0
   47.9130    8.7730    1.2290 C   0  0  0  0  0  0  0  0  0  0  0  0
   46.9440    9.8700    1.2190 C   0  0  0  0  0  0  0  0  0  0  0  0
   47.0490   10.8190    2.0900 N   0  0  0  0  0  0  0  0  0  0  0  0
   46.2050   11.9270    1.9600 C   0  0  0  0  0  0  0  0  0  0  0  0
   46.4360   13.0260    2.7920 C   0  0  0  0  0  0  0  0  0  0  0  0
   45.7870   14.2550    2.6030 C   0  0  0  0  0  0  0  0  0  0  0  0
   46.2780   15.4030    3.3570 C   0  0  0  0  0  0  0  0  0  0  0  0
   47.5140   15.7450    3.7100 C   0  0  0  0  0  0  0  0  0  0  0  0
   47.5020   16.9590    4.5480 C   0  0  0  0  0  0  0  0  0  0  0  0
   48.5470   17.4220    4.9850 O   0  0  0  0  0  0  0  0  0  0  0  0
   46.2780   17.4430    4.7430 N   0  0  0  0  0  0  0  0  0  0  0  0
   45.1810   16.5330    4.0390 S   0  0  0  0  0  0  0  0  0  0  0  0
   44.4710   17.1840    2.9440 O   0  0  0  0  0  0  0  0  0  0  0  0
   44.3610   15.7820    4.9760 O   0  5  0  0  0  0  0  0  0  0  0  0
   44.8090   14.3250    1.6030 C   0  0  0  0  0  0  0  0  0  0  0  0
   44.5410   13.2180    0.7830 C   0  0  0  0  0  0  0  0  0  0  0  0
   45.2470   12.0260    0.9560 C   0  0  0  0  0  0  0  0  0  0  0  0
   45.0800   10.8760    0.0360 C   0  0  0  0  0  0  0  0  0  0  0  0
   44.2200   10.8700   -0.8370 O   0  0  0  0  0  0  0  0  0  0  0  0
   45.9880    9.8450    0.2250 N   0  0  0  0  0  0  0  0  0  0  0  0
   45.9390    9.0530   -0.4080 H   0  0  0  0  0  0  0  0  0  0  0  0
   47.5710    7.5290    1.7400 C   0  0  0  0  0  0  0  0  0  0  0  0
   48.5400    6.5280    1.7920 C   0  0  0  0  0  0  0  0  0  0  0  0
   49.8520    6.7780    1.3630 C   0  0  0  0  0  0  0  0  0  0  0  0
   50.8380    5.8240    1.4310 O   0  0  0  0  0  0  0  0  0  0  0  0
   50.4690    4.7160    2.2590 C   0  0  0  0  0  0  0  0  0  0  0  0
   49.0530    4.2730    1.9550 C   0  0  0  0  0  0  0  0  0  0  0  0
   48.1410    5.3170    2.2950 O   0  0  0  0  0  0  0  0  0  0  0  0
   53.9330    7.3890   -1.8400 N   0  0  0  0  0  0  0  0  0  0  0  0
   57.4270    8.3210   -2.1930 C   0  0  0  0  0  0  0  0  0  0  0  0
   58.7010    7.7400   -2.2150 C   0  0  0  0  0  0  0  0  0  0  0  0
   60.0870    2.1180   -2.2960 C   0  0  0  0  0  0  0  0  0  0  0  0
   59.3260    0.9960   -1.9530 C   0  0  0  0  0  0  0  0  0  0  0  0
   57.5110   -0.2690    1.7650 C   0  0  0  0  0  0  0  0  0  0  0  0
   58.2460   -1.3220    4.6980 C   0  0  0  0  0  0  0  0  0  0  0  0
   58.9170   -2.3510    4.6870 O   0  0  0  0  0  0  0  0  0  0  0  0
   62.4260    3.5740   13.9720 H   0  0  0  0  0  0  0  0  0  0  0  0
   61.2230    2.4820   14.7250 H   0  0  0  0  0  0  0  0  0  0  0  0
   62.3160    1.7870   13.5680 H   0  0  0  0  0  0  0  0  0  0  0  0
   58.7870    2.0420   12.1720 H   0  0  0  0  0  0  0  0  0  0  0  0
   59.9490    1.0380   13.0800 H   0  0  0  0  0  0  0  0  0  0  0  0
   59.1030    2.3000   13.8860 H   0  0  0  0  0  0  0  0  0  0  0  0
   60.1000    4.1760    9.2010 H   0  0  0  0  0  0  0  0  0  0  0  0
   61.9870    4.5400    9.4420 H   0  0  0  0  0  0  0  0  0  0  0  0
   63.3130    2.7460    6.2900 H   0  0  0  0  0  0  0  0  0  0  0  0
   63.6350    3.5710    7.8020 H   0  0  0  0  0  0  0  0  0  0  0  0
   63.5860    1.8090    7.7600 H   0  0  0  0  0  0  0  0  0  0  0  0
   60.4930   -0.8630    7.2320 H   0  0  0  0  0  0  0  0  0  0  0  0
   55.8290   -0.1370    6.6060 H   0  0  0  0  0  0  0  0  0  0  0  0
   55.2990    1.4020    5.9100 H   0  0  0  0  0  0  0  0  0  0  0  0
   55.9920    0.7090    3.6880 H   0  0  0  0  0  0  0  0  0  0  0  0
   54.8370   -0.4270    4.3410 H   0  0  0  0  0  0  0  0  0  0  0  0
   58.7870   -2.5930    2.1470 H   0  0  0  0  0  0  0  0  0  0  0  0
   57.3240   -3.6110    2.2860 H   0  0  0  0  0  0  0  0  0  0  0  0
   55.4210   -3.3450    0.6350 H   0  0  0  0  0  0  0  0  0  0  0  0
   55.2720   -1.7330   -0.1460 H   0  0  0  0  0  0  0  0  0  0  0  0
   54.9970   -2.3740    2.5500 H   0  0  0  0  0  0  0  0  0  0  0  0
   57.4530   -0.7620   -1.5840 H   0  0  0  0  0  0  0  0  0  0  0  0
   56.3920    0.2200   -0.6050 H   0  0  0  0  0  0  0  0  0  0  0  0
   57.3450    2.4160    0.4180 H   0  0  0  0  0  0  0  0  0  0  0  0
   58.7120    4.3620   -0.1410 H   0  0  0  0  0  0  0  0  0  0  0  0
   57.8250    4.5990   -3.1840 H   0  0  0  0  0  0  0  0  0  0  0  0
   55.6080    5.5890   -3.0900 H   0  0  0  0  0  0  0  0  0  0  0  0
   49.6400   11.5730   -3.0990 H   0  0  0  0  0  0  0  0  0  0  0  0
   50.2110   13.7580   -2.0350 H   0  0  0  0  0  0  0  0  0  0  0  0
   52.3930   14.0050   -0.9500 H   0  0  0  0  0  0  0  0  0  0  0  0
   54.6930   10.2420    0.0710 H   0  0  0  0  0  0  0  0  0  0  0  0
   58.6990   17.1520    0.3430 H   0  0  0  0  0  0  0  0  0  0  0  0
   55.3960   19.9450    0.6590 H   0  0  0  0  0  0  0  0  0  0  0  0
   56.8120   20.5980    1.4520 H   0  0  0  0  0  0  0  0  0  0  0  0
   55.5840   21.6000   -1.1670 H   0  0  0  0  0  0  0  0  0  0  0  0
   55.5310   22.4070    0.3980 H   0  0  0  0  0  0  0  0  0  0  0  0
   57.2910   23.3640   -1.0940 H   0  0  0  0  0  0  0  0  0  0  0  0
   57.9820   22.6940    0.3860 H   0  0  0  0  0  0  0  0  0  0  0  0
   57.8720   21.3560   -2.3570 H   0  0  0  0  0  0  0  0  0  0  0  0
   59.3120   21.9850   -1.5690 H   0  0  0  0  0  0  0  0  0  0  0  0
   60.8510   18.9930   -0.1920 H   0  0  0  0  0  0  0  0  0  0  0  0
   61.1510   18.2080   -1.7050 H   0  0  0  0  0  0  0  0  0  0  0  0
   54.8390   19.4950   -1.9060 H   0  0  0  0  0  0  0  0  0  0  0  0
   53.2930   16.8470   -1.6060 H   0  0  0  0  0  0  0  0  0  0  0  0
   50.9850   16.9320   -2.4420 H   0  0  0  0  0  0  0  0  0  0  0  0
   49.1630   18.2160   -3.5200 H   0  0  0  0  0  0  0  0  0  0  0  0
   49.5380   20.5510   -4.2120 H   0  0  0  0  0  0  0  0  0  0  0  0
   57.0760   22.2940   -5.2740 H   0  0  0  0  0  0  0  0  0  0  0  0
   56.2770   24.1930   -3.8320 H   0  0  0  0  0  0  0  0  0  0  0  0
   49.1960   26.0070   -4.7310 H   0  0  0  0  0  0  0  0  0  0  0  0
   48.2360   27.9440   -3.6570 H   0  0  0  0  0  0  0  0  0  0  0  0
   48.0660   27.3970    0.6960 H   0  0  0  0  0  0  0  0  0  0  0  0
   44.2150   29.2500    2.6610 H   0  0  0  0  0  0  0  0  0  0  0  0
   45.6200   30.2520    3.0510 H   0  0  0  0  0  0  0  0  0  0  0  0
   44.1390   30.0230    0.4200 H   0  0  0  0  0  0  0  0  0  0  0  0
   44.9860   31.4300    1.1130 H   0  0  0  0  0  0  0  0  0  0  0  0
   49.8890   29.9170   -1.7430 H   0  0  0  0  0  0  0  0  0  0  0  0
   50.3120   28.6850    1.0990 H   0  0  0  0  0  0  0  0  0  0  0  0
   51.5200   29.6360    0.1300 H   0  0  0  0  0  0  0  0  0  0  0  0
   49.9420   31.5900    0.0860 H   0  0  0  0  0  0  0  0  0  0  0  0
   48.7550   30.6420    1.0750 H   0  0  0  0  0  0  0  0  0  0  0  0
   50.6330   24.7500   -0.8550 H   0  0  0  0  0  0  0  0  0  0  0  0
   54.6050   14.3140   -1.3810 H   0  0  0  0  0  0  0  0  0  0  0  0
   50.9110    8.4000   -1.7770 H   0  0  0  0  0  0  0  0  0  0  0  0
   51.5920    6.8640   -1.2810 H   0  0  0  0  0  0  0  0  0  0  0  0
   52.3320    7.8280    0.9110 H   0  0  0  0  0  0  0  0  0  0  0  0
   51.7810    9.4100    0.4470 H   0  0  0  0  0  0  0  0  0  0  0  0
   49.4570   10.0190    0.3870 H   0  0  0  0  0  0  0  0  0  0  0  0
   47.1990   12.9250    3.5570 H   0  0  0  0  0  0  0  0  0  0  0  0
   48.4280   15.2350    3.4610 H   0  0  0  0  0  0  0  0  0  0  0  0
   44.2840   15.2520    1.3890 H   0  0  0  0  0  0  0  0  0  0  0  0
   43.8290   13.3250   -0.0280 H   0  0  0  0  0  0  0  0  0  0  0  0
   46.5660    7.3410    2.0980 H   0  0  0  0  0  0  0  0  0  0  0  0
   51.1730    3.9030    2.0560 H   0  0  0  0  0  0  0  0  0  0  0  0
   50.5840    5.0140    3.3080 H   0  0  0  0  0  0  0  0  0  0  0  0
   48.9230    4.0200    0.8960 H   0  0  0  0  0  0  0  0  0  0  0  0
   48.7920    3.3940    2.5520 H   0  0  0  0  0  0  0  0  0  0  0  0
   57.3340    9.3680   -1.9120 H   0  0  0  0  0  0  0  0  0  0  0  0
   59.5530    8.3640   -1.9540 H   0  0  0  0  0  0  0  0  0  0  0  0
   60.8400    2.0190   -3.0750 H   0  0  0  0  0  0  0  0  0  0  0  0
   59.5150    0.0560   -2.4680 H   0  0  0  0  0  0  0  0  0  0  0  0
   56.7800    0.5400    1.6670 H   0  0  0  0  0  0  0  0  0  0  0  0
   58.4190    0.1300    2.2280 H   0  0  0  0  0  0  0  0  0  0  0  0
   54.9810   -0.8520    1.8940 H   0  0  0  0  0  0  0  0  0  0  0  0
  1  2  1  0  0  0  0
  1156  1  0  0  0  0
  1157  1  0  0  0  0
  1158  1  0  0  0  0
  2  3  1  0  0  0  0
  2  4  1  0  0  0  0
  3159  1  0  0  0  0
  3160  1  0  0  0  0
  3161  1  0  0  0  0
  4  5  2  0  0  0  0
  4  6  1  0  0  0  0
  6  7  1  0  0  0  0
  6162  1  0  0  0  0
  6163  1  0  0  0  0
  7  8  1  0  0  0  0
  7  9  1  0  0  0  0
  8164  1  0  0  0  0
  8165  1  0  0  0  0
  8166  1  0  0  0  0
  9 10  2  0  0  0  0
  9 13  1  0  0  0  0
 10 11  1  0  0  0  0
 10167  1  0  0  0  0
 11 12  2  0  0  0  0
 11154  1  0  0  0  0
 12 13  1  0  0  0  0
 12 14  1  0  0  0  0
 14 15  1  0  0  0  0
 14168  1  0  0  0  0
 14169  1  0  0  0  0
 15 16  1  0  0  0  0
 15170  1  0  0  0  0
 15171  1  0  0  0  0
 16 17  1  0  0  0  0
 16 18  1  0  0  0  0
 16154  1  0  0  0  0
 18 19  1  0  0  0  0
 18 23  1  0  0  0  0
 18153  1  0  0  0  0
 19 20  1  0  0  0  0
 19172  1  0  0  0  0
 19173  1  0  0  0  0
 20 21  1  0  0  0  0
 20 22  1  0  0  0  0
 20 24  1  0  0  0  0
 22 23  1  0  0  0  0
 22174  1  0  0  0  0
 22175  1  0  0  0  0
 23176  1  0  0  0  0
 23239  1  0  0  0  0
 24 25  1  0  0  0  0
 24153  1  0  0  0  0
 25 26  1  0  0  0  0
 25177  1  0  0  0  0
 25178  1  0  0  0  0
 26 27  1  0  0  0  0
 26152  2  0  0  0  0
 27 28  2  0  0  0  0
 27179  1  0  0  0  0
 28 29  1  0  0  0  0
 28180  1  0  0  0  0
 29 30  1  0  0  0  0
 29151  2  0  0  0  0
 30 31  1  0  0  0  0
 30 36  2  0  0  0  0
 31 32  1  0  0  0  0
 31 33  1  0  0  0  0
 33 34  2  0  0  0  0
 33 35  1  0  0  0  0
 35 36  1  0  0  0  0
 36 37  1  0  0  0  0
 37 38  1  0  0  0  0
 37150  2  0  0  0  0
 38 39  2  0  0  0  0
 38181  1  0  0  0  0
 39 40  1  0  0  0  0
 39182  1  0  0  0  0
 40 41  1  0  0  0  0
 40149  2  0  0  0  0
 41 42  1  0  0  0  0
 41148  2  0  0  0  0
 42 43  2  0  0  0  0
 43 44  1  0  0  0  0
 43115  1  0  0  0  0
 44 45  2  0  0  0  0
 44 49  1  0  0  0  0
 45 46  1  0  0  0  0
 46 47  2  0  0  0  0
 46183  1  0  0  0  0
 47 48  1  0  0  0  0
 47184  1  0  0  0  0
 48 49  2  0  0  0  0
 48185  1  0  0  0  0
 49 50  1  0  0  0  0
 50 51  1  0  0  0  0
 50114  2  0  0  0  0
 51 52  2  0  0  0  0
 51186  1  0  0  0  0
 52 53  1  0  0  0  0
 53 54  1  0  0  0  0
 53113  2  0  0  0  0
 54 55  1  0  0  0  0
 55 56  2  0  0  0  0
 55 57  1  0  0  0  0
 57 58  1  0  0  0  0
 57113  1  0  0  0  0
 58 59  2  0  0  0  0
 58112  1  0  0  0  0
 59 60  1  0  0  0  0
 59187  1  0  0  0  0
 60 61  1  0  0  0  0
 60 71  2  0  0  0  0
 61 62  1  0  0  0  0
 61 66  1  0  0  0  0
 62 63  1  0  0  0  0
 62188  1  0  0  0  0
 62189  1  0  0  0  0
 63 64  1  0  0  0  0
 63190  1  0  0  0  0
 63191  1  0  0  0  0
 64 65  1  0  0  0  0
 64192  1  0  0  0  0
 64193  1  0  0  0  0
 65 66  1  0  0  0  0
 65194  1  0  0  0  0
 65195  1  0  0  0  0
 66 67  1  0  0  0  0
 66 68  1  0  0  0  0
 68 69  1  0  0  0  0
 68 70  2  0  0  0  0
 69196  1  0  0  0  0
 69197  1  0  0  0  0
 71 72  1  0  0  0  0
 71112  1  0  0  0  0
 72 73  2  0  0  0  0
 72198  1  0  0  0  0
 73 74  1  0  0  0  0
 73199  1  0  0  0  0
 74 75  1  0  0  0  0
 74111  2  0  0  0  0
 75 76  2  0  0  0  0
 75200  1  0  0  0  0
 76 77  1  0  0  0  0
 76201  1  0  0  0  0
 77 78  2  0  0  0  0
 77202  1  0  0  0  0
 78 79  1  0  0  0  0
 78111  1  0  0  0  0
 79 80  1  0  0  0  0
 79 88  1  0  0  0  0
 79109  1  0  0  0  0
 80 81  2  0  0  0  0
 80 86  1  0  0  0  0
 81 82  1  0  0  0  0
 82 83  1  0  0  0  0
 82 84  1  0  0  0  0
 84 85  2  0  0  0  0
 84203  1  0  0  0  0
 85 86  1  0  0  0  0
 85204  1  0  0  0  0
 86 87  2  0  0  0  0
 88 89  1  0  0  0  0
 89 90  2  0  0  0  0
 89 91  1  0  0  0  0
 91 92  1  0  0  0  0
 91109  1  0  0  0  0
 92 93  2  0  0  0  0
 92108  1  0  0  0  0
 93 94  1  0  0  0  0
 93205  1  0  0  0  0
 94 95  2  0  0  0  0
 94206  1  0  0  0  0
 95 96  1  0  0  0  0
 95107  1  0  0  0  0
 96 97  1  0  0  0  0
 96 98  1  0  0  0  0
 96104  1  0  0  0  0
 98 99  1  0  0  0  0
 98207  1  0  0  0  0
 99100  2  0  0  0  0
 99103  1  0  0  0  0
100101  1  0  0  0  0
101102  1  0  0  0  0
101208  1  0  0  0  0
101209  1  0  0  0  0
102103  1  0  0  0  0
102210  1  0  0  0  0
102211  1  0  0  0  0
104105  1  0  0  0  0
104106  1  0  0  0  0
104212  1  0  0  0  0
105106  1  0  0  0  0
105213  1  0  0  0  0
105214  1  0  0  0  0
106215  1  0  0  0  0
106216  1  0  0  0  0
107108  2  0  0  0  0
108217  1  0  0  0  0
109110  2  0  0  0  0
113114  1  0  0  0  0
114218  1  0  0  0  0
115116  1  0  0  0  0
115148  1  0  0  0  0
116117  1  0  0  0  0
116219  1  0  0  0  0
116220  1  0  0  0  0
117118  1  0  0  0  0
117221  1  0  0  0  0
117222  1  0  0  0  0
118119  1  0  0  0  0
118143  2  0  0  0  0
119120  2  0  0  0  0
119223  1  0  0  0  0
120121  1  0  0  0  0
120141  1  0  0  0  0
121122  2  0  0  0  0
121139  1  0  0  0  0
122123  1  0  0  0  0
123124  2  0  0  0  0
123136  1  0  0  0  0
124125  1  0  0  0  0
124224  1  0  0  0  0
125126  1  0  0  0  0
125134  2  0  0  0  0
126127  2  0  0  0  0
126131  1  0  0  0  0
127128  1  0  0  0  0
127225  1  0  0  0  0
128129  2  0  0  0  0
128130  1  0  0  0  0
130131  2  0  0  0  0
131132  2  0  0  0  0
131133  1  0  0  0  0
134135  1  0  0  0  0
134226  1  0  0  0  0
135136  2  0  0  0  0
135227  1  0  0  0  0
136137  1  0  0  0  0
137138  2  0  0  0  0
137139  1  0  0  0  0
139140  1  0  0  0  0
141142  2  0  0  0  0
141228  1  0  0  0  0
142143  1  0  0  0  0
142147  1  0  0  0  0
143144  1  0  0  0  0
144145  1  0  0  0  0
145146  1  0  0  0  0
145229  1  0  0  0  0
145230  1  0  0  0  0
146147  1  0  0  0  0
146231  1  0  0  0  0
146232  1  0  0  0  0
149150  1  0  0  0  0
149233  1  0  0  0  0
150234  1  0  0  0  0
151152  1  0  0  0  0
151235  1  0  0  0  0
152236  1  0  0  0  0
153237  1  0  0  0  0
153238  1  0  0  0  0
154155  2  0  0  0  0
M  CHG  1  23   1
M  CHG  1  54  -1
M  CHG  1  88  -1
M  CHG  1 133  -1
M  END
>  <$File>
/tmp/tmpf24VV8/step3.mdb

> <mseq>
1

> <rmsd>
0.8674328

> <rmsdx>
100.8674

> <hitmap>
264 0 129 132 130 279 280

> <rseq>
1

> <S>
3047.133

> <rmsd_refine>
2.54278

> <E_conf>
1099.921

> <E_score1>
50656.68

> <E_refine>
3047.133

> <PLIF_pronum>
1

>  <PLIF_raw>
[[52,54,129,129,130,130,132,133,130,130,132,58,112,71,60,59,9,9,9,9,9,13,13,13,13,13,12,12,12,12,12,11,11,11,11,11,10,10,10,10,10],[318,318,2986,4300,3564,3570,3570,3506,3564,3570,3570,4256,4256,4256,4256,4256,385,388,391,389,386,385,388,391,389,386,385,388,391,389,386,385,388,391,389,386,385,388,391,389,386],[21,21,182,266,221,221,221,217,221,221,221,263,263,263,263,263,25,25,25,25,25,25,25,25,25,25,25,25,25,25,25,25,25,25,25,25,25,25,25,25,25],[2,2,4,2,2,2,2,4,7,7,7,10,10,10,10,10,10,10,10,10,10,10,10,10,10,10,10,10,10,10,10,10,10,10,10,10,10,10,10,10,10],[0.7,0.5,0.8,7.5,4.4,0.5,1.6,3.8,4.327610669,2.637467417,3.421198051,0.6,0.6,0.6,0.6,0.6,1e-005,1e-005,1e-005,1e-005,1e-005,1e-005,1e-005,1e-005,1e-005,1e-005,1e-005,1e-005,1e-005,1e-005,1e-005,1e-005,1e-005,1e-005,1e-005,1e-005,1e-005,1e-005,1e-005,1e-005,1e-005]]

> <index>
1

> <Dominant_Ionic_Form_at_pH>
7.4

> <Dominant_Ionic_Form_at_pH_Part>
0.37

> <Record_ID>
1

> <ph4score>
-17.14286

> <FINAL_SCORE>
3029.99

> <Weight>
2027.162

> <chiral>
6

> <rings>
24

> <reactive>
1

> <a_heavy>
148

> <b_Cont_Rot>
3

> <structure_score>
-0.4735685

> <rmsd_score>
-17.14286

> <score_with_structure>
663.3332

$$$$

